              56
Atoms
    C   2.7506377487530185E+00  3.7887562365965550E+00  1.6338847124193649E+00
    C   1.1798077487530183E+00  3.1259262365965554E+00  3.5309547124193652E+00
    C  -4.1932251246981522E-02  1.3382962365965549E+00  2.1232947124193653E+00
    C   1.5288877487530186E+00  2.0011262365965550E+00  2.2622471241936504E-01
    N   1.5344477487530186E+00  4.0025062365965551E+00  2.4148547124193649E+00
    N   5.7327748753018160E-02  2.2111462365965551E+00  3.2963047124193650E+00
    N   1.1742477487530183E+00  1.1245462365965544E+00  1.3423347124193650E+00
    N   2.6513777487530183E+00  2.9159062365965553E+00  4.6088471241936491E-01
    N   4.9118774875301829E-01  4.7197962365965553E+00  1.7947147124193650E+00
    N  -1.0791522512469816E+00  2.3198962365965548E+00  4.1246347124193647E+00
    N   2.2174977487530181E+00  4.0725623659655508E-01  1.9624747124193653E+00
    N   3.7878577487530181E+00  2.8071562365965548E+00 -3.6745528758063495E-01
    O   7.4061774875301833E-01  5.2894262365965554E+00  7.3019471241936484E-01
    O  -6.0359225124698179E-01  4.7533862365965547E+00  2.3652147124193648E+00
    O  -1.0042122512469818E+00  3.0638062365965553E+00  5.1042647124193650E+00
    O  -2.0648822512469818E+00  1.6447562365965549E+00  3.8176147124193647E+00
    O   1.9680677487530185E+00 -1.6238376340344551E-01  3.0269847124193645E+00
    O   3.3122877487530178E+00  3.7365623659655522E-01  1.3919647124193655E+00
    O   3.7129177487530183E+00  2.0632562365965548E+00 -1.3470852875806343E+00
    O   4.7735877487530178E+00  3.4823062365965551E+00 -6.0435287580634878E-02
    H   3.1102677487530186E+00  4.7729662365965551E+00  1.3202147124193648E+00
    H   3.5073677487530186E+00  3.4008262365965551E+00  2.3153447124193645E+00
    H   1.0270377487530185E+00  3.7631462365965547E+00  4.4055447124193652E+00
    H   2.0502477487530180E+00  2.5113862365965547E+00  3.7688847124193647E+00
    H  -7.9865225124698158E-01  1.7262462365965554E+00  1.4418347124193649E+00
    H  -4.0156225124698164E-01  3.5409623659655498E-01  2.4369647124193645E+00
    H   6.5845774875301855E-01  2.6156662365965548E+00 -1.1705287580634938E-02
    H   1.6816677487530185E+00  1.3639062365965549E+00 -6.4836528758063450E-01
    C   2.6667167257236977E+00  8.9157862365965563E+00  5.8805242725645606E+00
    C   4.2375467257236981E+00  8.2530062365965549E+00  3.9834442725645602E+00
    C   5.4593067257236978E+00  6.4653462365965551E+00  5.3910542725645598E+00
    C   3.8885167257236981E+00  7.1281762365965555E+00  7.2881442725645602E+00
    N   3.8828867257236981E+00  9.1295762365965558E+00  5.0995542725645606E+00
    N   5.3600567257236982E+00  7.3382662365965556E+00  4.2180942725645600E+00
    N   4.2431467257236974E+00  6.2515962365965558E+00  6.1720342725645612E+00
    N   2.7660267257236977E+00  8.0429462365965563E+00  7.0535342725645602E+00
    N   4.9261167257236984E+00  9.8469062365965563E+00  5.7196842725645602E+00
    N   6.4964967257236985E+00  7.4469862365965556E+00  3.3897042725645599E+00
    N   3.1998667257236981E+00  5.5343362365965554E+00  5.5518942725645601E+00
    N   1.6295567257236976E+00  7.9341562365965554E+00  7.8818842725645606E+00
    O   4.6766567257236975E+00  1.0416546236596556E+01  6.7841942725645605E+00
    O   6.0208867257236989E+00  9.8805462365965546E+00  5.1491542725645605E+00
    O   6.4215167257236985E+00  8.1908762365965551E+00  2.4100742725645605E+00
    O   7.4822167257236973E+00  6.7718062365965555E+00  3.6966642725645600E+00
    O   3.4492567257236981E+00  4.9647262365965554E+00  4.4873442725645596E+00
    O   2.1050867257236980E+00  5.5007462365965560E+00  6.1224142725645603E+00
    O   1.7045267257236980E+00  7.1902562365965554E+00  8.8615042725645612E+00
    O   6.4381672572369775E-01  8.6092862365965566E+00  7.5748842725645602E+00
    H   2.3070467257236982E+00  9.8999762365965545E+00  6.1941942725645607E+00
    H   1.9100067257236977E+00  8.5278062365965539E+00  5.1990742725645607E+00
    H   4.3903167257236984E+00  8.8902462365965569E+00  3.1088542725645598E+00
    H   3.3671267257236979E+00  7.6384462365965549E+00  3.7455042725645602E+00
    H   6.2160667257236977E+00  6.8532362365965556E+00  6.0725142725645611E+00
    H   5.8189167257236978E+00  5.4811562365965552E+00  5.0773242725645602E+00
    H   4.7589667257236972E+00  7.7427162365965554E+00  7.5260342725645604E+00
    H   3.7357867257236981E+00  6.4909462365965558E+00  8.1627442725645611E+00
