56

C     -1.39630      1.22520      0.24474
C      0.17453      0.56242     -1.65234
C      1.39629     -1.22524     -0.24473
C     -0.17450     -0.56241      1.65236
N     -0.18013      1.43899     -0.53623
N      1.29704     -0.35232     -1.41769
N      0.18013     -1.43899      0.53625
N     -1.29699      0.35236      1.41775
N      0.86310      2.15632      0.08390
N      2.43348     -0.24360     -2.24608
N     -0.86315     -2.15625     -0.08389
N     -2.43346      0.24357      2.24610
O      0.61364      2.72596      1.14841
O      1.95787      2.18996     -0.48663
O      2.35850      0.50029     -3.22571
O      3.41920     -0.91878     -1.93912
O     -0.61376     -2.72586     -1.14844
O     -1.95793     -2.18984      0.48663
O     -2.35849     -0.50033      3.22572
O     -3.41920      0.91870      1.93910
H     -1.75597      2.20939      0.55841
H     -2.15301      0.83722     -0.43671
H      0.32730      1.19966     -2.52693
H     -0.69589     -0.05214     -1.89028
H      2.15305     -0.83735      0.43673
H      1.75590     -2.20943     -0.55846
H      0.69595      0.05213      1.89025
H     -0.32723     -1.19964      2.52696
C      4.10498      6.35229      3.51248
C      2.53415      5.68946      5.40955
C      1.31241      3.90183      4.00189
C      2.88323      4.56466      2.10482
N      2.88879      6.56604      4.29345
N      1.41167      4.77468      5.17490
N      2.52859      3.68808      3.22093
N      4.00572      5.47944      2.33948
N      1.84553      7.28333      3.67331
N      0.27519      4.88343      6.00323
N      3.57184      2.97079      3.84107
N      5.14220      5.37069      1.51114
O      2.09496      7.85296      2.60879
O      0.75075      7.31692      4.24381
O      0.35013      5.62734      6.98286
O     -0.71054      4.20829      5.69621
O      3.32241      2.40115      4.90558
O      4.66663      2.93719      3.27056
O      5.06726      4.62679      0.53151
O      6.12793      6.04584      1.81816
H      4.46461      7.33650      3.19881
H      4.86171      5.96436      4.19394
H      2.38138      6.32668      6.28414
H      3.40459      5.07492      5.64748
H      0.55569      4.28978      3.32043
H      0.95278      2.91763      4.31556
H      2.01280      5.17920      1.86689
H      3.03601      3.92744      1.23023
